CM
CM Balcony whip antenna
CM
CE
GW    1    3    0.000    0.000   15.000    0.000    0.000   15.250   0.0008
GW    2   16    0.000    0.000   15.250    0.000   -5.500   15.250   0.0008
GW    3    3    0.000    0.000   15.000    0.000    0.000   14.040   0.0008
GW    4    4    0.000    0.000   15.000    1.210    0.000   15.000   0.0008
GW    5    3    1.210    0.000   15.000    1.210    0.000   14.040   0.0008
GW    6    4    1.210    0.000   14.040    0.000    0.000   14.040   0.0008
GW    7    4    1.210    0.000   15.000    2.430    0.000   15.000   0.0008
GW    8    3    2.430    0.000   15.000    2.430    0.000   14.040   0.0008
GW    9    4    2.430    0.000   14.040    1.210    0.000   14.040   0.0008
GW   10    3    2.430    0.000   15.000    3.480    0.000   15.000   0.0008
GW   11    3    3.480    0.000   15.000    3.480    0.000   14.040   0.0008
GW   12    3    3.480    0.000   14.040    2.430    0.000   14.040   0.0008
GW   13    4    0.000    0.000   15.000    0.000    1.270   15.000   0.0008
GW   14    3    0.000    1.270   15.000    0.000    1.270   14.040   0.0008
GW   15    4    0.000    1.270   14.040    0.000    0.000   14.040   0.0008
GE   0
EX   0 1 2 0 1.0	0.0
GN   3 0 0 0 13.000000 0.050000
FR   0 41 0 0 13.000000 0.050000
EN
